-------------------------------------------------------
          Amber 20 PMEMD                              2020
          -------------------------------------------------------

  [-O]verwriting output

File Assignments:

 Here is the input file:

equilibration script at 300k for 200 ps
&cntrl
  imin=0,
  ntx=5,
  irest=1,
  nstlim=100000,
  dt=0.002,
  ntf=2, ntc=2,
  ntpr=100,
  ntwx=100,
  cut=8.0,
  ntb=2,
  ntp=1,
  ntt=3,
  barostat=1,
  gamma_ln=2.0,
  ig=-1,
  temp0=300.0,
  tempi=300.0,
/

Note: ig = -1. Setting random seed to   644764 based on wallclock time in
      microseconds.

--------------------------------------------------------------------------------
   1.  RESOURCE   USE:
--------------------------------------------------------------------------------

 getting box info from netcdf restart file
 NATOM  =   54662 NTYPES =      19 NBONH =   50225 MBONA  =    4535
 NTHETH =    9779 MTHETA =    6150 NPHIH =   19854 MPHIA  =   19279
 NHPARM =       0 NPARM  =       0 NNB   =  109411 NRES   =   15861
 NBONA  =    4535 NTHETA =    6150 NPHIA =   19279 NUMBND =      76
 NUMANG =     168 NPTRA  =     196 NATYP =      44 NPHB   =       0
 IFBOX  =       2 NMXRS  =      27 IFCAP =       0 NEXTRA =       0
 NCOPY  =       0

     BOX TYPE: TRUNCATED OCTAHEDRON

--------------------------------------------------------------------------------
   2.  CONTROL  DATA  FOR  THE  RUN
--------------------------------------------------------------------------------

default_name

General flags:
     imin    =       0, nmropt  =       0

Nature and format of input:
     ntx     =       5, irest   =       1, ntrx    =       1

Nature and format of output:
     ntxo    =       2, ntpr    =     100, ntrx    =       1, ntwr    =  100000
     iwrap   =       0, ntwx    =     100, ntwv    =       0, ntwe    =       0
     ioutfm  =       1, ntwprt  =       0, idecomp =       0, rbornstat=      0

Potential function:
     ntf     =       2, ntb     =       2, igb     =       0, nsnb    =      25
     ipol    =       0, gbsa    =       0, iesp    =       0
     dielc   =   1.00000, cut     =   8.00000, intdiel =   1.00000

Frozen or restrained atoms:
     ibelly  =       0, ntr     =       0

Molecular dynamics:
     nstlim  =    100000, nscm    =      1000, nrespa  =         1
     t       =   0.00000, dt      =   0.00200, vlimit  =  -1.00000

Langevin dynamics temperature regulation:
     ig      =  644764
     temp0   = 300.00000, tempi   = 300.00000, gamma_ln=   2.00000

Pressure regulation:
     ntp     =       1
     pres0   =   1.00000, comp    =  44.60000, taup    =   1.00000

SHAKE:
     ntc     =       2, jfastw  =       0
     tol     =   0.00001

Ewald parameters:
     verbose =       0, ew_type =       0, nbflag  =       1, use_pme =       1
     vdwmeth =       1, eedmeth =       1, netfrc  =       1
     Box X =   93.065   Box Y =   93.065   Box Z =   93.065
     Alpha =  109.471   Beta  =  109.471   Gamma =  109.471
     NFFT1 =   96       NFFT2 =   96       NFFT3 =   96
     Cutoff=    8.000   Tol   =0.100E-04
     Ewald Coefficient =  0.34864
     Interpolation order =    4

--------------------------------------------------------------------------------
   3.  ATOMIC COORDINATES AND VELOCITIES
--------------------------------------------------------------------------------

default_name
 begin time read from input coords =   200.000 ps

 Number of triangulated 3-point waters found:    15306

     Sum of charges from parm topology file =   0.00100165
     Forcing neutrality...

--------------------------------------------------------------------------------
   4.  RESULTS
 NSTEP =      100   TIME(PS) =     200.200  TEMP(K) =   299.23  PRESS =  -332.2
 Etot   =   -127447.9952  EKtot   =     33823.2422  EPtot      =   -161271.2374
 BOND   =      1619.4058  ANGLE   =      4559.5299  DIHED      =      7011.4050
 1-4 NB =      2108.7518  1-4 EEL =     21906.5725  VDWAALS    =     16420.6567
 EELEC  =   -214897.5590  EHBOND  =         0.0000  RESTRAINT  =         0.0000
 EKCMT  =     13702.9076  VIRIAL  =     18130.9979  VOLUME     =    617372.4203
                                                    Density    =         0.9110
 ------------------------------------------------------------------------------

      A V E R A G E S   O V E R    1000 S T E P S

 NSTEP =   100000   TIME(PS) =     400.000  TEMP(K) =   299.99  PRESS =   -13.0
 Etot   =   -130260.8762  EKtot   =     33908.7941  EPtot      =   -164169.6703
 BOND   =      1701.3470  ANGLE   =      4529.4236  DIHED      =      6995.2585
 1-4 NB =      2107.7772  1-4 EEL =     21848.3027  VDWAALS    =     16525.7753
 EELEC  =   -217877.5544  EHBOND  =         0.0000  RESTRAINT  =         0.0000
 EKCMT  =     13750.4668  VIRIAL  =     13915.6033  VOLUME     =    545255.9237
                                                    Density    =         1.0318
 ------------------------------------------------------------------------------

      R M S  F L U C T U A T I O N S

 NSTEP =   100000   TIME(PS) =     400.000  TEMP(K) =     1.22  PRESS =   140.0
 Etot   =       482.0631  EKtot   =       138.3059  EPtot      =       454.8803
 BOND   =        35.1328  ANGLE   =        52.9165  DIHED      =        30.2711
 1-4 NB =        18.8322  1-4 EEL =        51.3569  VDWAALS    =       177.3353
 EELEC  =       511.7389  EHBOND  =         0.0000  RESTRAINT  =         0.0000
 EKCMT  =        87.9883  VIRIAL  =      1677.1498  VOLUME     =     10060.2456
                                                    Density    =         0.0177
 ------------------------------------------------------------------------------
