-------------------------------------------------------
          Amber 20 PMEMD                              2020
          -------------------------------------------------------

  [-O]verwriting output

File Assignments:

 Here is the input file:

production script at 300k for 1 ns
&cntrl
  imin=0,
  ntx=5,
  irest=1,
  nstlim=500000,
  dt=0.002,
  ntf=2, ntc=2,
  ntpr=100,
  ntwx=100,
  cut=8.0,
  ntb=2,
  ntp=1,
  ntt=3,
  barostat=1,
  gamma_ln=2.0,
  ig=-1,
  temp0=300.0,
  tempi=300.0,
/

Note: ig = -1. Setting random seed to   877886 based on wallclock time in
      microseconds.

--------------------------------------------------------------------------------
   1.  RESOURCE   USE:
--------------------------------------------------------------------------------

 getting box info from netcdf restart file
 NATOM  =   54662 NTYPES =      19 NBONH =   50225 MBONA  =    4535
 NTHETH =    9779 MTHETA =    6150 NPHIH =   19854 MPHIA  =   19279
 NHPARM =       0 NPARM  =       0 NNB   =  109411 NRES   =   15861
 NBONA  =    4535 NTHETA =    6150 NPHIA =   19279 NUMBND =      76
 NUMANG =     168 NPTRA  =     196 NATYP =      44 NPHB   =       0
 IFBOX  =       2 NMXRS  =      27 IFCAP =       0 NEXTRA =       0
 NCOPY  =       0

     BOX TYPE: TRUNCATED OCTAHEDRON

--------------------------------------------------------------------------------
   2.  CONTROL  DATA  FOR  THE  RUN
--------------------------------------------------------------------------------

default_name

General flags:
     imin    =       0, nmropt  =       0

Nature and format of input:
     ntx     =       5, irest   =       1, ntrx    =       1

Nature and format of output:
     ntxo    =       2, ntpr    =     100, ntrx    =       1, ntwr    =  500000
     iwrap   =       0, ntwx    =     100, ntwv    =       0, ntwe    =       0
     ioutfm  =       1, ntwprt  =       0, idecomp =       0, rbornstat=      0

Potential function:
     ntf     =       2, ntb     =       2, igb     =       0, nsnb    =      25
     ipol    =       0, gbsa    =       0, iesp    =       0
     dielc   =   1.00000, cut     =   8.00000, intdiel =   1.00000

Frozen or restrained atoms:
     ibelly  =       0, ntr     =       0

Molecular dynamics:
     nstlim  =    500000, nscm    =      1000, nrespa  =         1
     t       =   0.00000, dt      =   0.00200, vlimit  =  -1.00000

Langevin dynamics temperature regulation:
     ig      =  877886
     temp0   = 300.00000, tempi   = 300.00000, gamma_ln=   2.00000

Pressure regulation:
     ntp     =       1
     pres0   =   1.00000, comp    =  44.60000, taup    =   1.00000

SHAKE:
     ntc     =       2, jfastw  =       0
     tol     =   0.00001

Ewald parameters:
     verbose =       0, ew_type =       0, nbflag  =       1, use_pme =       1
     vdwmeth =       1, eedmeth =       1, netfrc  =       1
     Box X =   88.987   Box Y =   88.987   Box Z =   88.987
     Alpha =  109.471   Beta  =  109.471   Gamma =  109.471
     NFFT1 =   96       NFFT2 =   96       NFFT3 =   96
     Cutoff=    8.000   Tol   =0.100E-04
     Ewald Coefficient =  0.34864
     Interpolation order =    4

--------------------------------------------------------------------------------
   3.  ATOMIC COORDINATES AND VELOCITIES
--------------------------------------------------------------------------------

default_name
 begin time read from input coords =   400.000 ps

 Number of triangulated 3-point waters found:    15306

     Sum of charges from parm topology file =   0.00100165
     Forcing neutrality...

--------------------------------------------------------------------------------
   4.  RESULTS
 NSTEP =      100   TIME(PS) =     400.200  TEMP(K) =   301.17  PRESS =  -172.3
 Etot   =   -130485.5158  EKtot   =     34042.4922  EPtot      =   -164528.0080
 BOND   =      1697.5141  ANGLE   =      4588.8218  DIHED      =      6977.6027
 1-4 NB =      2086.0069  1-4 EEL =     21805.3312  VDWAALS    =     16584.8770
 EELEC  =   -218268.1616  EHBOND  =         0.0000  RESTRAINT  =         0.0000
 EKCMT  =     13864.3618  VIRIAL  =     15883.4809  VOLUME     =    542887.3566
                                                    Density    =         1.0359
 ------------------------------------------------------------------------------

      A V E R A G E S   O V E R    5000 S T E P S

 NSTEP =   500000   TIME(PS) =    1400.000  TEMP(K) =   299.99  PRESS =     2.9
 Etot   =   -130544.9517  EKtot   =     33909.0338  EPtot      =   -164453.9856
 BOND   =      1705.5313  ANGLE   =      4532.7650  DIHED      =      6984.7636
 1-4 NB =      2104.0397  1-4 EEL =     21868.8702  VDWAALS    =     16513.6650
 EELEC  =   -218163.6204  EHBOND  =         0.0000  RESTRAINT  =         0.0000
 EKCMT  =     13750.7065  VIRIAL  =     13717.1274  VOLUME     =    541801.0508
                                                    Density    =         1.0380
 ------------------------------------------------------------------------------

      R M S  F L U C T U A T I O N S

 NSTEP =   500000   TIME(PS) =    1400.000  TEMP(K) =     1.26  PRESS =   128.5
 Etot   =       249.7441  EKtot   =       142.5036  EPtot      =       202.8182
 BOND   =        34.5449  ANGLE   =        50.1842  DIHED      =        28.5074
 1-4 NB =        19.2120  1-4 EEL =        55.4336  VDWAALS    =       173.7862
 EELEC  =       292.1062  EHBOND  =         0.0000  RESTRAINT  =         0.0000
 EKCMT  =        90.0136  VIRIAL  =      1503.6415  VOLUME     =       643.9697
                                                    Density    =         0.0012
 ------------------------------------------------------------------------------
